25

O     9.8063    6.7484    6.0885
N     9.7397    8.9984    6.4750
C     7.0182    9.0039    6.4919
C     7.7207   10.2126    6.7059
C     9.0860   10.1650    6.6896
C     9.1265    7.7705    6.2658
C     7.6883    7.8291    6.2800
H     5.9361    9.0050    6.4969
H     7.2119   11.1470    6.8772
H     9.7110   11.0327    6.8443
H     7.1638    6.8994    6.1179
H    10.7774    8.9955    6.4631
N    12.6367    8.9982    6.4398
C    13.3194    7.8539    6.6239
C    14.7277    7.8327    6.6103
C    15.4225    9.0078    6.4032
C    14.7139   10.1958    6.2108
C    13.3319   10.1296    6.2382
H    15.2499    6.8981    6.7635
H    16.5039    9.0009    6.3894
H    15.2150   11.1367    6.0428
H    12.7379   11.0236    6.0887
N    12.5922    6.7260    6.8756
H    13.0734    5.8530    6.7498
H    11.6128    6.7263    6.5859

