10

C     6.8000    6.4724    6.1365
C     6.8000    7.8076    6.1365
H     7.7236    5.9077    6.1349
H     5.8764    5.9077    6.1349
H     5.8764    8.3723    6.1349
H     7.7236    8.3723    6.1349
C     6.8000    7.1400   11.1616
C     6.8000    7.1400    9.9544
H     6.8000    7.1400    8.8885
H     6.8000    7.1400   12.2251

