20

C     6.8301    7.4582    7.4639
C     6.8301    7.4582    8.8561
N     7.8184    6.9064    9.5745
C     8.8089    6.3648    8.8567
C     8.8089    6.3648    7.4633
N     7.8184    6.9064    6.7455
H     6.0139    7.9077    6.9127
H     6.0139    7.9077    9.4073
H     9.6261    5.9171    9.4076
H     9.6261    5.9171    6.9124
C     7.7393   10.7100    9.2900
C     8.9313    9.9893    9.2906
N     9.5475    9.6207    8.1600
C     8.9313    9.9893    7.0294
C     7.7393   10.7100    7.0300
N     7.1250   11.0829    8.1600
H     7.2669   10.9943   10.2219
H     9.3982    9.6970   10.2224
H     9.3982    9.6970    6.0976
H     7.2669   10.9943    6.0981

