10

C     6.5431    7.1582    9.2900
C     7.7351    6.4375    9.2906
N     8.3512    6.0689    8.1600
C     7.7351    6.4375    7.0294
C     6.5431    7.1582    7.0300
N     5.9288    7.5311    8.1600
H     6.0707    7.4425   10.2219
H     8.2019    6.1452   10.2224
H     8.2019    6.1452    6.0976
H     6.0707    7.4425    6.0981

