24

C     8.1322    6.7383    8.1600
C     7.7255    7.3046    9.3662
C     7.7255    7.3046    6.9538
C     6.9132    8.4372    9.3670
C     6.5085    9.0050    8.1600
C     6.9132    8.4372    6.9530
H     8.0461    6.8679    6.0177
H     6.5975    8.8763    6.0162
H     5.8770    9.8833    8.1600
H     6.5975    8.8763   10.3038
H     8.0461    6.8679   10.3023
H     8.7740    5.8681    8.1600
C    10.2278    9.5817    8.1600
C    10.6345    9.0154    6.9538
C    10.6345    9.0154    9.3662
C    11.4468    7.8828    6.9530
C    11.8515    7.3150    8.1600
C    11.4468    7.8828    9.3670
H     9.5860   10.4519    8.1600
H    10.3139    9.4521   10.3023
H    11.7625    7.4437   10.3038
H    12.4830    6.4367    8.1600
H    11.7625    7.4437    6.0162
H    10.3139    9.4521    6.0177

