12

C     8.2867    7.0226    8.1600
C     7.8800    7.5889    9.3662
C     7.8800    7.5889    6.9538
C     7.0677    8.7215    9.3670
C     6.6631    9.2893    8.1600
C     7.0677    8.7215    6.9530
H     8.2007    7.1523    6.0177
H     6.7520    9.1606    6.0162
H     6.0315   10.1676    8.1600
H     6.7520    9.1606   10.3038
H     8.2007    7.1523   10.3023
H     8.9285    6.1524    8.1600

