12

C     7.8126    6.3434    6.9529
C     7.1258    6.2241    8.1600
C     7.8126    6.3434    9.3671
C     9.1862    6.5822    9.3671
C     9.8730    6.7013    8.1600
C     9.1862    6.5822    6.9529
H     7.2800    6.2482    6.0167
H     6.0617    6.0328    8.1600
H     7.2800    6.2482   10.3033
H     9.7187    6.6751   10.3037
H    10.9383    6.8872    8.1600
H     9.7187    6.6751    6.0163

