24

O     7.0337   12.5722    6.1200
C     7.8719   13.4743    6.1200
N     9.2205   13.2483    6.1200
C    10.1367   14.2653    6.1200
C     9.7769   15.5662    6.1200
C     8.3714   15.9222    6.1200
N     7.5223   14.7996    6.1200
O     7.9028   17.0464    6.1200
H    10.5104   16.3539    6.1200
H     9.5233   12.2662    6.1200
H     6.5300   14.9924    6.1200
H    11.1691   13.9483    6.1200
O     9.9663   10.5478    6.1200
C     9.1281    9.6457    6.1200
N     7.7795    9.8717    6.1200
C     6.8633    8.8547    6.1200
C     7.2231    7.5538    6.1200
C     8.6286    7.1978    6.1200
N     9.4777    8.3204    6.1200
O     9.0972    6.0736    6.1200
H     6.4896    6.7661    6.1200
H     7.4767   10.8538    6.1200
H    10.4700    8.1276    6.1200
H     5.8309    9.1717    6.1200

