15

N     6.9915    6.0979    7.9559
C     7.7305    6.0901    9.0773
C     9.1313    6.1164    8.9343
C     9.6211    6.1454    7.6288
N     8.9097    6.1516    6.4939
C     7.6056    6.1271    6.7540
N    10.1451    6.1204    9.8638
C    11.2395    6.1512    9.1220
N    10.9860    6.1671    7.7781
N     7.1281    6.0493   10.2740
H     6.9360    6.1309    5.9033
H    12.2448    6.1634    9.5087
H    11.6601    6.1907    7.0311
H     6.1152    6.0835   10.3387
H     7.7009    6.0911   11.0967

