12

C     7.1059    8.1600    6.1183
C     7.8030    9.3672    6.1178
C     9.1970    9.3672    6.1178
C     9.8941    8.1600    6.1183
C     9.1970    6.9528    6.1178
C     7.8030    6.9528    6.1178
H     6.0246    8.1600    6.1222
H     7.2618   10.3036    6.1188
H     9.7382   10.3036    6.1188
H    10.9754    8.1600    6.1222
H     9.7382    6.0164    6.1188
H     7.2618    6.0164    6.1188

