10

C     6.9511    6.9603    6.1200
O     7.3467    8.2137    6.1200
O     7.6696    5.9734    6.1200
H     5.8605    6.8812    6.1200
H     8.3412    8.2472    6.1200
C    10.7289    7.3197    6.1200
O    10.3333    6.0663    6.1200
O    10.0104    8.3066    6.1200
H    11.8195    7.3988    6.1200
H     9.3388    6.0328    6.1200

