28

C     8.9270   10.0313    7.8419
C     7.6734    9.4736    7.5984
C     7.5698    8.2738    6.8974
C     8.7191    7.6331    6.4370
C     9.9728    8.1959    6.6746
C    10.0771    9.3961    7.3758
H     9.0081   10.9560    8.3964
H     6.7830    9.9649    7.9653
H     6.5971    7.8378    6.7132
H     8.6377    6.7039    5.8886
H    10.8646    7.7054    6.3064
H    11.0481    9.8321    7.5658
H     6.0063    9.3948   11.4297
C     6.9260    8.9253   11.1072
C     8.1331    9.5735   11.3125
H     8.1629   10.5438   11.7914
C     9.3185    8.9487   10.8906
C    10.6989    9.3034   10.9252
H    11.1351   10.1993   11.3334
C    11.3932    8.2684   10.3412
N    10.5127    7.2857    9.9614
C     9.2342    7.6725   10.2677
C     8.0196    7.0141   10.0665
H     7.9751    6.0440    9.5892
C     6.8688    7.6577   10.4935
H     5.9091    7.1791   10.3527
H    10.7556    6.4628    9.4391
H    12.4509    8.1509   10.1754

